46

  Nd  0.38017685704324     -0.13039720944440      0.76268978084213
  O   -1.09711301982350     -1.36299821276233      2.07934773550427
  O   0.31694066522445     -2.29261997348723     -0.17679527495515
  S   0.16970371917066     -3.70150301066612      0.35430872575253
  F   2.75950369955451     -4.05263384097993      0.67146571694155
  F   1.56905912046977     -4.79558425432134      2.32040862386230
  F   1.86152919171404     -2.65682063199489      2.07570489474181
  C   1.70632699473349     -3.83038960942266      1.43415024260378
  O   0.23455254001754     -4.77507913436557     -0.60893497552682
  N   -1.06186707431587     -3.85056718411861      1.34471131035407
  S   -1.77999355435622     -2.71057189812963      2.20430308138694
  O   -3.22056005935127     -2.71570216646133      2.07981432519936
  C   -1.35904299081704     -3.19315251356475      3.96740839545701
  F   -1.88119046261430     -2.29339935186689      4.78250157748983
  F   -0.03743053548117     -3.21192768873296      4.10415267486614
  F   -1.85532842868647     -4.38859409313715      4.22353995459794
  S   -2.09336541308340      1.89342480561665     -1.02817220544810
  O   0.24533661109524      2.21552323593079      1.05991987909509
  O   -1.20303473814587      0.68745137898209     -0.78382100509261
  S   -0.04603218400218      3.43127339638583      0.21121491887086
  O   -3.46981608411645      1.76559699340088     -0.59936180340730
  O   0.06556645761991      4.72286890418511      0.84714480610237
  N   -1.40323944038735      3.27104954349971     -0.60092852748249
  C   -2.08661585791779      2.03038585427705     -2.89752286845185
  C   1.32322182665198      3.31453499590416     -1.07497034144526
  F   2.47076634364632      3.68128757542043     -0.54390940388045
  F   1.03240659496452      4.07147621043404     -2.11512909635639
  F   -0.83134713960900      2.15191702569658     -3.31617970830390
  F   1.40482533553163      2.03131261213427     -1.47033548060886
  F   -2.62524041898503      0.93487320000718     -3.40437761257626
  F   -2.78612058992970      3.09064829747602     -3.25464803967431
  O   1.50036762210952      0.23907586532809      2.80175887616735
  F   2.77823562640793      2.98555733272153      2.13375283513010
  C   2.68079560752807      2.55162586388496      3.38823557032089
  F   1.51394893007561      2.90310494082857      3.89736930684359
  F   3.66699454752462      3.05202198571368      4.10813202907749
  O   3.11430229864663      0.24120095657218      4.72823102493556
  S   2.82372836008319      0.67341811268355      3.38018920829646
  N   4.03989165905455      0.38009651360710      2.39077493488548
  S   3.99493065814689      0.36638062469786      0.79883841607744
  O   2.65080682375242     -0.08798756787192      0.25391862311313
  O   4.57391413278365      1.51448575656406      0.12831286101030
  F   4.68573570525186     -2.14996199759160      1.16626114426894
  C   5.09038454775111     -1.11388515208509      0.44772368837549
  F   6.33639370409083     -0.80770576797265      0.75462718661502
  F   4.99324388521020     -1.39553718592330     -0.84267834200071
