46

  Nd  0.70988475810530      0.20292433245611      1.11543000306231
  S   -1.69646637476541      1.21068399511682     -1.39591865581565
  O   -0.22183792289568      2.36046454074553      1.18777503048566
  O   -0.48008955857917      0.45883048468228     -0.88932762195453
  S   -0.79112191819148      3.37986588653445      0.22219611579597
  O   -2.96522015742783      0.51936099204734     -1.30940986627689
  O   -1.37439307692060      4.56721590956927      0.79982424066970
  N   -1.74035345409134      2.71679068165758     -0.86829573999902
  C   -1.29014235000920      1.41956295776855     -3.21371481391759
  C   0.75948117511318      3.90138322255031     -0.71011130971012
  F   1.49045163214918      4.68643626246065      0.06066082419568
  F   0.42681395795515      4.53121589349567     -1.82041873430799
  F   -0.16495436695057      2.11436175311421     -3.32809267384369
  F   1.45760252922451      2.79978729714653     -1.01323483252442
  F   -1.13174582750077      0.21663108491899     -3.74189596837415
  F   -2.27821543006225      2.05460804124574     -3.81434054443310
  O   2.00589681923807      0.50927349568247      3.04824857843693
  F   2.70263362223945      3.12506197295542      2.02973007552787
  C   3.07363266321712      2.89579007011202      3.29499151968246
  F   2.10830256096634      3.27364462117068      4.11390925906359
  F   4.18273608470892      3.55475088123291      3.55973497123872
  O   3.76437623411616      0.78089774897851      4.83277377027436
  S   3.35630190993477      1.05081745057808      3.47370110810318
  N   4.51129257846499      0.75877003195090      2.41547114783501
  S   4.33631133375321      0.26909127584316      0.90711992749670
  O   2.92505238564644      0.45314375321155      0.38837838500330
  O   5.40150019225540      0.73029625677551      0.04737138048155
  F   3.55617097794332     -2.00149703092322      1.95389127972126
  C   4.45081075713993     -1.60100284638028      1.04935065927707
  F   5.66209566326747     -1.94342736559349      1.43868540441200
  F   4.17309228162277     -2.14148677398761     -0.12423953173453
  O   0.89561089253428     -2.07576997543366      0.66046157858607
  S   0.09509539531830     -3.36282091741748      0.69559003598069
  S   -1.38682668513524     -2.20308917118229      2.84571135581378
  O   -1.02837304143915     -0.84106434893255      2.28337064347845
  N   -0.96308577884797     -3.40398847666697      1.88727198695316
  O   0.85141693966395     -4.58775489665032      0.57032663318411
  O   -2.72409163503701     -2.35716456303505      3.36822592930123
  C   -0.17067662960582     -2.33499938907806      4.27110151419786
  F   1.06148981324887     -2.35794807850696      3.75588711258264
  F   -0.30108105828043     -1.27791383503205      5.05458565354538
  F   -0.39373946126731     -3.44097495858147      4.95066132244029
  C   -0.98718036459378     -3.17253318747512     -0.82877420326517
  F   -1.65297275956078     -4.28944462114498     -1.04369793873762
  F   -0.21547270967822     -2.89219289363257     -1.86857018875964
  F   -1.83283401810928     -2.17024727407316     -0.61626013673912
