52

  Nd  2.45677514146819     -5.11014255200684      0.54558914712765
  F   0.94525976281497     -3.43421074644736     -4.21710779259889
  F   2.19136090132563     -5.11355401388218     -4.78687289458199
  C   1.00892522916348     -4.74850549639565     -4.31432387762751
  F   0.04768857670963     -5.20173742599253     -5.09550266699286
  S   0.84977083506152     -5.51625291197699     -2.61403413511757
  O   1.97464979782302     -4.89783688565092     -1.83392453624153
  O   0.96806407386708     -6.97451935429498     -2.78708814829290
  N   -0.58417887758040     -4.97674290895612     -2.18151801833119
  S   -1.09519965130548     -5.05433974020367     -0.66140143185412
  O   0.04151965282328     -5.07365189372475      0.31868454682775
  O   -2.18889371804623     -4.13873417064230     -0.42572123595947
  C   -1.78990477096156     -6.79411289055767     -0.48298787337039
  F   -2.52613715448474     -7.09479918005872     -1.53707223329260
  F   -0.77702131247907     -7.65869741008918     -0.38611620003740
  F   -2.52508479144550     -6.85034614294336      0.61482632336360
  O   1.68842233361356     -6.70653254064510      2.20483120491412
  F   -0.86203118132144     -8.05045876301598      2.63633094883288
  S   1.23043058953188     -6.85990372182586      3.62967100580120
  O   1.68909532046371     -8.04384740062459      4.32854228237233
  F   -1.18427141771861     -7.23041738733499      4.61721624291307
  F   -1.11728719807077     -5.91209550789185      2.89898941985658
  C   -0.62614508415702     -7.01758234108829      3.44053677683988
  N   1.33046482360782     -5.51124730357995      4.48682820766281
  S   2.20069880457008     -4.22782435723433      4.15714907997463
  O   2.41802517266328     -4.01963424246421      2.67706550445765
  O   1.76832359998126     -3.06461028695329      4.90235693011306
  C   3.92979006712042     -4.65903266026042      4.74243717566197
  F   4.25728789935967     -5.85539923450184      4.25961949232542
  F   4.77942292476317     -3.74737382175331      4.28936654367079
  F   3.95732255978949     -4.68651908700099      6.06169157321028
  O   4.56747433911801     -5.98873510101332      1.26377563011930
  F   6.61607851239779     -6.97217385722518      3.16640676976833
  S   5.96338663367477     -6.23235469244130      0.75325043907088
  O   6.22509229254714     -7.54298995583880      0.18748765834613
  F   8.28346578542696     -6.25889041791304      1.98015278546935
  F   6.86160866033634     -4.84787798035588      2.80754098097277
  C   7.01562551463890     -6.05945310758173      2.29352348162835
  N   6.53296932052883     -5.00164016729717     -0.10437773087675
  S   5.66007281797217     -4.02140012894755     -0.99490228514790
  O   4.26864786095276     -3.81384802718834     -0.45196596237213
  O   6.38919531129762     -2.82805262063291     -1.36782321895623
  C   5.31099224221712     -4.99081066764783     -2.56233006078047
  F   4.65872836260696     -6.10836253555575     -2.22209948087409
  F   4.55456198910481     -4.26611700190568     -3.37328748889002
  F   6.44360037539776     -5.30731168308054     -3.16041386672626
  O   1.96262321333694     -2.65152563519893      0.31346507671489
  H   2.74898680223126     -2.26951821488247     -0.11166361290647
  H   1.88906210565145     -2.23113526095723      1.18495072835646
  H   1.89527795978365     -8.04682469849776      0.24361996299824
  O   2.22270076092749     -7.38753387743145     -0.38602877075054
  H   1.83150623090008     -7.57278198840699     -1.26644239679125
