52

  Nd  2.63077484474102     -5.30911471505921      0.75481006987681
  F   1.09243226856490     -7.37494022720161     -3.86564505870772
  F   0.30737372041310     -8.85934013227581     -2.49586766967802
  C   0.13588230340933     -7.64732273471365     -2.99967118434800
  F   -1.04856069279726     -7.55724474914309     -3.57437338488282
  S   0.22467906904629     -6.44390430381538     -1.56815554238714
  O   1.64061916825176     -6.55327437196657     -1.07782902127832
  O   -0.77852222968246     -6.86309050620930     -0.57324366113087
  N   -0.04743284543889     -5.07324957358560     -2.33802493141289
  S   0.13687324212352     -3.68933010142520     -1.53856337498241
  O   0.78804746851702     -3.91596369584045     -0.20037971809642
  O   0.62879281697236     -2.62052211504559     -2.38028692022457
  C   -1.60904371107972     -3.23266842701765     -1.03073525331514
  F   -2.32429805341298     -2.94814893138313     -2.10475902356333
  F   -2.15890521320111     -4.24913321250525     -0.37862097809899
  F   -1.55112832988345     -2.17246698655878     -0.23243718442876
  O   2.89443425851148     -7.63809952496537      1.34403637625411
  F   1.40172869562117    -10.13170396605703      1.17876264620162
  S   2.96073222623229     -8.54551177743907      2.53449357580757
  O   4.05908854184178     -9.48938975860377      2.59297582292881
  F   1.32134235304292    -10.46241015446724      3.31938088878651
  F   0.31802124933549     -8.75033209682631      2.44692675512299
  C   1.38787872412384     -9.55340172778102      2.36806817810006
  N   2.63116055324874     -7.77728451207924      3.91096344968117
  S   3.13813048792718     -6.31483158737165      4.28855561006382
  O   3.03514810247914     -5.35168258796952      3.13301531778241
  O   2.56564732024092     -5.86998636174418      5.54255132056787
  C   4.99817683329060     -6.43514949012227      4.52182647467689
  F   5.53626999017253     -6.96159463810836      3.42887012931556
  F   5.47653475204674     -5.21352188394995      4.71387276372839
  F   5.26418837256460     -7.19604555531689      5.56739411089370
  O   4.97669651844432     -5.63867043700778      0.68739580700141
  F   7.01980575121335     -4.41479968678590      2.46455637557225
  S   6.27548703064442     -5.18540088162179      0.07240875815438
  O   7.33862359519103     -6.16366390205223      0.00074515826120
  F   7.91238031222292     -3.27024108805604      0.85659342573882
  F   5.83013233127950     -2.95741125367723      1.38441456418977
  C   6.80872579104796     -3.85752787690339      1.27938979283895
  N   6.09357749734483     -4.36893366513588     -1.28698398739668
  S   4.70901543336134     -3.96369735408059     -1.96776674173641
  O   3.54804358905969     -3.97922930886168     -1.01029428821169
  O   4.84458355714075     -2.80386997875318     -2.81981326238711
  C   4.30474029532224     -5.44466678338081     -3.04451338550552
  F   4.34118188394641     -6.53370644021695     -2.27092557100157
  F   3.08608553616569     -5.30243011003064     -3.54636638715068
  F   5.18552206483632     -5.56263134637964     -4.01942798935246
  O   2.56509128964683     -3.03255474456331      1.74519709873664
  H   1.93473809532409     -2.41807237126325      1.33890172346781
  H   2.52228143029760     -2.92913989563037      2.70732801907703
  H   -0.22147292471230     -6.26898503744181      1.09802839160131
  O   0.42920377449464     -5.96043037032191      1.76757953880754
  H   0.42199086050476     -6.63547706128596      2.46234237604204
