55

  C   1.57131424393378      1.16958986376225     -0.82780773049826
  F   2.51111584690286      2.07884479255160     -1.01614749503705
  F   1.25867411185641      0.60170729478028     -1.98955809816573
  F   0.49006385771464      1.73905725869124     -0.31055762056808
  S   2.18486450388263     -0.12426052453623      0.37884552279720
  N   3.47339697857393     -0.71317089669092     -0.35523577400384
  S   3.67136821045384     -2.19071178839735     -0.92050798657486
  O   5.07500732316674     -2.53133571124493     -1.00665323488597
  O   2.73939971009149     -3.20729289383958     -0.33350750716246
  C   3.03438151645773     -2.12607903399611     -2.68466655740032
  F   1.68911679236089     -2.01564381032554     -2.66888064377300
  F   3.53515381798971     -1.08511745801665     -3.32330397110390
  F   3.35559160414752     -3.24469403592148     -3.31151303149310
  O   2.49901841041233      0.61168548780381      1.59113835810626
  O   1.03281054414908     -1.09324757199886      0.43520138725822
  Nd  1.00460761430259     -3.41737296420862      1.34549638172753
  O   2.25825360561928     -7.66572180751732      0.52376137235666
  S   0.97070701622087     -7.00564743620564      0.59275480224305
  F   -0.53604328281415     -9.06103358440065     -0.11596135657744
  O   0.87269796834502     -5.59098797391231      0.09516871206177
  C   -0.15339135751267     -7.89954522207126     -0.61729699078857
  F   0.51318173642847     -8.09278823321057     -1.74584048440919
  F   -1.22571710436367     -7.14613889774069     -0.86312840507582
  N   0.25728626373559     -7.24231483953326      2.00679389050408
  S   -0.59998680043862     -6.19595747989630      2.83204014162202
  O   -0.22029753910646     -6.11295666439118      4.24117124538699
  O   -0.78352211132098     -4.87143665032124      2.14765613361155
  F   -2.32699791534344     -8.07778047710620      3.45196446191756
  C   -2.32043552675016     -6.93171217459576      2.79465430073387
  F   -2.67377917806955     -7.13553624338832      1.53016185688582
  F   -3.16103608534484     -6.07788223698677      3.35968933214206
  O   2.39771919252387     -5.10489559152721      2.36332516036503
  S   3.40832973542353     -5.19880681514728      3.47727249257398
  F   5.01755802011919     -6.17350446994211      1.63921425657332
  O   2.88906177093004     -5.63174193698942      4.76557918178727
  C   4.63567046760162     -6.47833682743025      2.86414268210701
  F   4.03267820657053     -7.65135605921583      2.88656950871066
  F   5.67793761453173     -6.48918485093325      3.67984408970353
  N   4.36316162445458     -3.90586689980940      3.49636370320025
  S   3.71735217685075     -2.45217875541549      3.54629077285997
  O   2.81255022067732     -2.19374867434277      2.37249281818686
  O   3.15206097719418     -2.03687825469186      4.83654885881951
  F   5.61374389032089     -1.61955265966147      1.94090265199548
  C   5.22582958195664     -1.39677431821819      3.18209652463071
  F   6.18943452040220     -1.70929628924957      4.03033342548533
  F   4.87406716285657     -0.13485090107035      3.33745419446525
  O   -0.28766735306693     -3.33547653823118     -0.79641739306088
  H   -0.23273883834862     -4.24833077802983     -1.12709087395663
  H   0.11430164482338     -2.76734752875422     -1.47203582560273
  H   -0.43055694690777     -0.99622895004355      2.42032344957961
  O   -0.63551055134694     -1.94093700148288      2.48351108737058
  H   -0.48223282147402     -2.22457605859612      3.40842748910246
  O   0.77617577848684     -3.43072711456999      4.14848999927333
  H   0.57631550574356     -4.32003450893199      4.50793265330820
  H   1.44515364399541     -3.02428630484977      4.73399808068436
