55

  O   -0.72687459114256      6.06994316719873      1.51055380507838
  O   0.59809877265321      7.51074975758133      3.76952787085842
  Nd  -0.09116282642391      5.20114678717950      3.71618599582375
  O   0.34697382929741      3.16642665237667      2.31709742818819
  H   -0.53503427119352      2.76018561466009      2.25960887271265
  H   0.54084105760608      3.43173787662726      1.39107369958476
  O   2.02135456772343      5.46173959758473      2.39652733097111
  S   0.08464097910910      5.88153171494536      0.26353668316753
  S   2.53218941918089      6.45786099872045      1.38126447704855
  N   1.41466716515925      6.77648723273740      0.27901303818357
  O   3.22399340784522      7.63900091390744      1.85105003129571
  C   -0.87324468549643      6.77067943107172     -1.08266722636916
  F   -0.11348862328687      6.86314397640707     -2.16005737703141
  F   -1.20979529046641      7.97194899881735     -0.65151400530396
  F   -1.95031469935832      6.05827361379485     -1.34766563699405
  C   3.80077716514382      5.41533877327170      0.47772881864614
  F   4.67251409430353      4.95172145863530      1.36917664197489
  F   4.42846703999038      6.15574732897827     -0.41865116454784
  F   3.19617344314847      4.39722210824867     -0.12025271509228
  S   0.45022315174383      8.73701189778944      4.62448525576774
  N   -0.49081271093178      8.48418241680124      5.90666422184722
  S   -0.41837097119387      7.17692013313048      6.79668601674520
  C   -0.69117178296178      9.82895438676450      3.61582261462488
  F   -1.80299552145944      9.17674214621243      3.31511891295901
  F   -0.98097359270046     10.92154137535995      4.30293024994920
  F   -0.04777501512831     10.15018603863320      2.50281060908718
  F   0.45481902818657      8.58415707501272      8.85050289246121
  F   2.00858084485558      7.84077961330237      7.53148931095162
  F   0.99737033956886      6.48513532247014      8.89062401441132
  O   0.25768790808758      6.01721854888993      6.09932086475549
  O   -1.66775206860934      6.88675226395399      7.47686005789040
  O   -2.08250349083052      6.45672017580800      4.32154399958952
  S   -3.48912698219541      5.94385717111114      4.44095475056284
  N   -4.11238548540450      5.59357032838585      3.00661877698367
  S   -3.41719976564699      4.41210000062811      2.17235687267005
  O   -2.14899727114213      3.95516771094047      2.84841399465039
  O   -3.39772724047722      4.65697542152647      0.74398984851673
  C   -4.52934904580470      2.93182419531871      2.44308645541905
  F   -3.97259932158928      1.88299130645156      1.84609401286174
  F   -5.72060323148699      3.16668173764177      1.92046805493780
  F   -4.64507037350838      2.69512015941762      3.74254027345739
  O   -3.67751485601695      4.94268421749661      5.50212906302135
  O   -1.12797056651487      3.73057792859211      5.47862870329945
  H   -2.10144057766311      3.85217926154784      5.51848166116931
  H   -0.80955009594119      4.09483655395804      6.32096234120215
  O   2.00188517068089      4.41584801337465      4.86665474615953
  H   2.13574729224698      4.99142241376859      5.63698411406512
  H   2.71036827982775      4.61577515981637      4.23134926070377
  O   0.25000687719714      4.47702895306079     -0.14842339289557
  C   -4.50000180794239      7.46483912415462      4.87000756894665
  F   -4.00881080772391      7.96091784860028      5.98842719760938
  F   -5.76110091095821      7.10648245887185      5.03941618446037
  F   -4.40227885533642      8.34897358533316      3.89575936142117
  C   0.84940167619179      7.55811993346589      8.11935260025572
  O   1.66271582678861      9.49063911966225      4.88725196128537
