55

  Nd  2.42024666594563     -5.76701094402514      0.68981612016190
  F   0.81942236746840     -7.96168993092400     -4.31751535924472
  F   2.50546389564454     -7.67135392517450     -2.98866767201891
  C   1.20525034756445     -7.89395941855620     -3.05402013178142
  F   0.90554552661324     -9.02212578510982     -2.42799853477805
  S   0.25974196401851     -6.51601837561155     -2.19673732132378
  O   0.66773049787719     -6.64217873304395     -0.75401357475142
  O   -1.15237073694854     -6.72525670201935     -2.46642234433852
  N   0.91190527986599     -5.23242556817962     -2.90411334515690
  S   1.15688220191203     -3.83782846537284     -2.18503553929011
  O   1.45161093202207     -3.95036847615541     -0.71081827665002
  O   2.02443286122802     -2.97792836735311     -2.96550517056024
  C   -0.53819457419019     -3.04533259811171     -2.11310361625725
  F   -1.05217196495264     -2.94430996568045     -3.32436257825858
  F   -1.32645446151756     -3.81934493613555     -1.35724827066124
  F   -0.44352420436676     -1.84506708355323     -1.55816598823897
  O   0.84937241301447     -9.29065625959220      3.96230187320645
  F   -2.06981120367107     -8.38496757496184      3.26142253077978
  S   0.53328499669734     -8.14410517491806      3.12835826318578
  O   0.33483968417988     -6.80081177166539      3.73897337465540
  F   -1.35967346971700     -7.57909162797683      1.37768925198556
  F   -1.14873216354033     -9.69697325343133      1.80335898388131
  C   -1.13614963808594     -8.49000040993588      2.32735629799410
  N   1.56505467546914     -7.88111935708186      1.90459211303101
  S   2.25353659967108     -9.02343222370721      0.95395880935482
  O   1.36906496057741    -10.05383088107280      0.44443505421061
  O   3.03608522101376     -8.16207526306548      0.02358592327464
  C   3.54859396669802     -9.88500103996163      2.02509674639255
  F   2.95570689544022    -10.82663343991031      2.73753202136525
  F   4.44591101046864    -10.42326354313141      1.22306544003140
  F   4.11383078496978     -8.99523871751242      2.82719294323398
  O   4.77902534572487     -6.16423630710407      1.24304545080127
  F   7.35955330736125     -6.16516294122139      2.72253087244808
  S   5.97868645262623     -6.79852781401735      0.59067273773559
  O   6.22720538183308     -8.20927448518598      0.80111923046967
  F   8.53511071259864     -6.25879000733009      0.90357390305252
  F   7.21577075906527     -4.57428286304904      1.25527174984201
  C   7.38103837323999     -5.88085946103523      1.42696558544874
  N   6.09197695980835     -6.37593400842567     -0.95518940825149
  S   5.14301027611146     -5.20580574269830     -1.49012817609645
  O   3.68662385303267     -5.55052204196431     -1.37530848638228
  O   5.47433971836076     -3.84422831782593     -1.03741920749257
  C   5.48054444057038     -5.31114693555823     -3.33022146449910
  F   5.07511165146042     -6.48326081869366     -3.78012358302566
  F   4.79936560985663     -4.33785528632623     -3.90708234864990
  F   6.77403147790960     -5.15508736654510     -3.54769422094456
  O   0.17938702703620     -5.06243530865417      1.57069094256258
  H   -0.50387501249647     -5.23546393625171      0.90509789251458
  H   -0.07938835724680     -5.55262514862649      2.37684780784236
  H   4.40305061487962     -3.48513973539745      0.49670436494217
  O   3.53300352895159     -3.50989636296614      0.95111365672761
  H   2.95779307135509     -2.98387684621318      0.36692542537042
  O   2.57240700017073     -5.31707083511314      3.12970595678979
  H   1.88053353056538     -5.72406147563193      3.69081258415344
  H   2.85556294585370     -4.48195614123007      3.52548071120674
