61

  F   -1.71502207411949     -8.16724376803755      0.33361004463901
  Nd  -2.07761881943978     -3.85931945203869      0.45952746135860
  F   -3.37957450926354     -2.52505917897786     -3.31990950924392
  F   -3.37293588754115     -5.68028734756817      3.72535388307532
  F   -3.15731628239465     -8.62582077020049      1.88313137514576
  F   -1.56533694243986     -6.87338797131580      3.61399861291485
  F   -5.52980352260939     -2.55267819602981     -3.03805742644639
  N   -2.13178371144826     -3.16975505856843      4.58855159459825
  S   -3.11367495743815     -2.28956914813631      3.68180542077344
  S   -1.15010935937377     -4.31054823013016      4.04746630009932
  O   -4.32988482800790     -1.94056124001203      4.38853273764659
  F   -2.28466142993296     -6.17116025428322      5.53570735500982
  O   0.02393547835843     -4.44768742995288      4.88459585365786
  O   -0.93835763468953     -4.26803685417008      2.56546238428192
  O   -3.25505159826069     -2.79313252649510      2.27551487553199
  C   -2.14936052840781     -0.70458775604833      3.41617243970493
  F   -2.00239870238622     -0.06245985656772      4.56753635677690
  F   -0.95450066219709     -1.01376243396403      2.92598544674417
  F   -2.80807475583079      0.06194317136110      2.56137415330560
  C   -2.16511969286069     -5.87607534217188      4.24793436022982
  N   -2.60383157712505     -1.60436874868564     -0.63813569113554
  S   -1.82608444580041     -0.16236005359061     -0.85413485855176
  S   -4.19282440924903     -1.82037205884968     -0.89995341746391
  O   -2.74448398596621      0.88998220325087     -1.27689148673358
  F   -4.48725780231668     -0.66627237473412     -3.25915868238076
  O   -5.11637360203882     -0.80945240605068     -0.42286189698884
  O   -4.36186794806571     -3.23792937812185     -0.45934749638430
  O   -0.87297707209436      0.02730324363326      0.22935207785839
  C   -0.78064793491220     -0.54105147358539     -2.37916684358889
  F   -0.25827988215450     -1.75850590316700     -2.33498137014516
  F   -1.53893454623576     -0.43624125044463     -3.47010256114696
  F   0.19639692584174      0.35802822342714     -2.44345504173370
  C   -4.40939581791643     -1.89698971826182     -2.77085566539328
  N   -3.95255739784877     -6.88449006138705     -1.49432513785427
  S   -3.15940069178121     -5.87124156499304     -2.43541758540865
  S   -4.05845620667570     -6.94724036220475      0.09202765833840
  O   -3.98068244720096     -5.37834567183187     -3.52594501793320
  F   -3.37690534100739     -9.48628177649767     -0.09548714259903
  O   -5.39744086608279     -7.28612935632870      0.53271135233250
  O   -3.37918369567955     -5.81024162589536      0.79410321570063
  O   -2.31703181582683     -4.87180381141867     -1.70850938514033
  C   -1.86538011236968     -6.97236586209302     -3.22894530203221
  F   -1.29184297861598     -7.74075893663587     -2.31116367526733
  F   -2.43846784374592     -7.73824279707691     -4.14956009770998
  F   -0.94272767347147     -6.20986842149304     -3.80196175257135
  C   -2.99180674463407     -8.41027909521935      0.58328594729563
  F   1.37196972431012     -2.45573767908445      2.95023791548091
  C   2.04812874813521     -2.11799324796260      1.86396054042062
  F   3.34777720902002     -2.28524769750870      2.08124647284938
  F   1.80987233167712     -0.85031465004156      1.56215969775477
  S   1.53834277302335     -3.17369040445675      0.40287993155253
  O   2.41691708610900     -2.80330279087553     -0.69555130816509
  O   0.08431655944107     -2.85390965895997      0.21814021198259
  N   1.81048902742888     -4.62342721893240      1.02391431727002
  S   0.92799899637341     -5.92176291818543      0.76596842365310
  O   -0.42220884528490     -5.62694223837726      0.19415444125049
  O   1.02562818813097     -6.87011743625698      1.85946370697691
  C   1.74924036285629     -6.72744888018282     -0.70709212061567
  F   1.64988110287083     -5.92109899095380     -1.76098665788135
  F   3.03109090373384     -6.95731139733275     -0.45007220241345
  F   1.14285216543440     -7.87958610931968     -0.97513723328253
