64

  F   1.03875377433524     -5.98171505821945     -0.90564173152273
  Nd  0.11364628185801     -3.21215680490333      2.01323335202370
  F   3.65421931886458      1.38481725535668      2.17282380441642
  F   -1.99423821654906     -6.01785329633681      4.68257409007545
  F   0.37061382233507     -8.01279312322641     -1.27467609420673
  F   3.34582935407752     -0.54963867008775      1.24286756023918
  F   -0.39750487298816     -6.35085512356601      6.11105189786959
  F   2.82628574466340     -5.63315137830794      4.31361289232644
  F   1.52682534790618     -7.37021931343993      4.39348629189405
  N   0.70149649898342      0.82582340472434      2.19917697918988
  S   0.22379233908301      0.30187917390072      0.75765522647555
  S   1.64687368606452      0.00285223775532      3.17825820817057
  O   0.95205398053785      0.87522062648244     -0.36321664271516
  F   4.24886549200401     -0.41755050448565      3.21448747670340
  O   1.38987876848027     -1.47228030347090      3.16835999923163
  O   1.74691444712037      0.65751371016920      4.46900908166421
  O   -0.02058114675514     -1.17162293200225      0.71502305495509
  C   -1.49734271266926      1.03087085863846      0.70029018926443
  F   -2.24045380917633      0.55112441111652      1.68454372745627
  F   -1.42404376507719      2.35333761739594      0.80222768539896
  F   -2.03231364264620      0.70597817374900     -0.46752482757195
  C   3.34702377837713      0.11429092068778      2.39691988584686
  N   3.27104383416721     -5.85882556301473      1.27593401180150
  S   3.52523249493611     -4.32949174121157      0.89598874163922
  S   1.98470499139554     -6.49685045267859      1.96688864239025
  O   4.32348193523692     -4.21514795892236     -0.30852303232015
  F   3.58709854171103     -7.58642064038567      3.76029027737655
  O   1.67831075414693     -7.81265199967094      1.43897955975946
  O   0.85039408853778     -5.54086087722644      2.14296646516768
  O   2.31588050271523     -3.45758706580707      1.00813786441661
  C   4.61221933096287     -3.67951993034719      2.29233562388763
  F   5.31329832959802     -2.64590138191149      1.84641062096457
  F   3.84779147139772     -3.29105021403082      3.30845605052894
  F   5.44505852096807     -4.62652510755497      2.70967826641463
  C   2.52472731651701     -6.79216630273328      3.73288975670957
  N   -2.20489908025232     -3.08240386715778      5.35816525581360
  S   -2.44772270193662     -1.85269048971084      4.36375397713020
  S   -0.80552521771839     -3.82246444194850      5.58489395052744
  O   -3.86480447993691     -1.60139035593267      4.19624167412644
  F   -2.32163341132987     -5.62797412457796      6.78752504011410
  O   -0.11021001311607     -3.48794577795350      6.81602231944069
  O   0.02581475107378     -3.92809961876625      4.34377653145286
  O   -1.59721588598588     -1.90946727255052      3.13781765828979
  C   -1.72155406326073     -0.38166759045347      5.27239370182336
  F   -2.48087478040918     -0.08415716486193      6.31918580759080
  F   -0.50039073665992     -0.69831592633051      5.68579001880435
  F   -1.66300771135423      0.65796092403600      4.45412659466544
  C   -1.42863860138829     -5.57341084556707      5.81339068081541
  N   -1.54179783038061     -4.75157703463637     -2.28642453384908
  S   -1.11397556541462     -3.42331238046108     -1.53006926918054
  S   -1.52369638546946     -6.22272072659059     -1.61774446512862
  O   -2.10163008413255     -2.35758789429627     -1.57352923171504
  F   0.72319039556293     -6.66736543901483     -2.93403338790774
  O   -2.20750861062650     -7.14824274654302     -2.50655156392258
  O   -1.86230001583594     -6.24093116897883     -0.17934482324042
  O   -0.48875345790915     -3.72417354471131     -0.19792822336910
  C   0.34454835785400     -2.82494249694789     -2.54853438881331
  F   1.22141104318084     -3.81159109428670     -2.70017430187791
  F   -0.08930378513973     -2.43252853816471     -3.74136175469157
  F   0.92856174102485     -1.80784381568175     -1.93408059065919
  C   0.27902815421676     -6.75633116124735     -1.68413895818462
  O   -1.86418882230362     -4.68778427531933      2.00931291348627
  H   -1.88892021083469     -5.33347785506862      2.72958031167826
  H   -1.89623957263802     -5.22073592270786      1.17386410085726
