67

  Nd  -2.13221966487215     -2.74162185052437      0.97739531490177
  O   0.07522916538481     -2.07987719662021      0.09833113829665
  O   -1.94233881815363     -3.31632914056117     -1.44810343085336
  S   1.00687772689739     -2.74310620104420     -0.86356662548631
  O   1.68212088974869     -3.94028215498042     -0.34820536368838
  C   2.32399503632144     -1.45004329555339     -1.17013555085109
  F   2.95596032283563     -1.21894772246613     -0.02740766010171
  F   3.18828949872931     -1.89943384163161     -2.06971969008965
  F   1.76389338183876     -0.33204616226265     -1.60121379397487
  N   0.42758900954760     -2.85223230673314     -2.34737940904259
  S   -1.05783462299303     -3.37278950273853     -2.65111339487482
  O   -1.54750626486816     -2.85816277873573     -3.91213869766145
  C   -0.83603666794219     -5.21739080633281     -2.89571119839157
  F   -0.23835075651839     -5.74548782450660     -1.83309837096391
  F   -2.02370863748073     -5.78658916100427     -3.06167076081916
  F   -0.08989046253763     -5.43482845692216     -3.97268349320656
  O   -2.76708707780769     -4.07542380074464      5.08289467753974
  O   -0.98642390356684     -6.52034164514553      5.97300615720921
  S   -2.67983621177103     -4.89319755078372      3.87943040705849
  O   -3.10999228445767     -4.27108803940094      2.59031415817458
  C   -3.96500703669283     -6.24508592704496      4.06682327537854
  F   -5.16193713184097     -5.67860365256546      4.19087780625663
  F   -3.95827467357382     -7.02986708500742      2.99584942234169
  F   -3.70779584899059     -6.97225856258366      5.14463552052004
  N   -1.31111121889433     -5.65537512110034      3.54896275107148
  S   -0.30848260980432     -6.24119240224884      4.71019319616910
  O   0.55544157132182     -7.22582734310738      4.07146567483642
  C   0.82636192477006     -4.78575955020070      5.05474077723251
  F   0.16934722543690     -3.76723520043037      5.59106875307544
  F   1.76807698114627     -5.18937963205861      5.90897665684794
  F   1.41305827222131     -4.39075591272279      3.92421836724251
  O   -3.11265559178155     -0.92276866362665     -0.21888240222161
  O   -4.28866139650668     -3.46776541956282      0.11308913525564
  S   -3.98119518249849     -0.67127539559478     -1.41309538612804
  O   -3.30859756107792     -0.38511150564638     -2.66810567883401
  C   -4.86870902610394      0.89873854757943     -0.91607646801354
  F   -3.97355196286956      1.87088308491820     -0.78415172427089
  F   -5.74408260031564      1.23702579578282     -1.85623706797371
  F   -5.50578131828289      0.71517443383940      0.23200981760886
  N   -5.21663503286003     -1.67286403985021     -1.52207252979938
  S   -5.36498288887042     -3.11644195438319     -0.85965159869819
  O   -6.73405274593065     -3.37307837497579     -0.44949527489370
  C   -5.04710100713576     -4.29144194445727     -2.30449510162052
  F   -4.17207977794846     -3.77636994631749     -3.15423462340541
  F   -4.58196261318506     -5.44147566051098     -1.82817044360378
  F   -6.19151227844016     -4.51342708452642     -2.94176284578080
  O   -0.76527966551289     -2.64863661043327      3.10447928378439
  S   -0.53759247673104     -1.21577673890459      3.44775074363893
  C   1.33056156222490     -1.03211594445655      3.46248543521967
  F   1.80541302046347     -1.48973929896940      4.61462853292728
  F   1.63528255014810      0.25368791547982      3.33457521650560
  N   -1.02721047654277     -0.45989264976505      2.11819651615486
  S   -1.48990455267386      1.10776490041788      2.12274789070523
  O   -0.85113017292929      1.92326093079862      3.14976088792121
  O   -2.94994715536731      1.17857889920251      1.93958688478684
  C   -0.69660238617352      1.64500477686496      0.50551463871379
  F   0.62326945974869      1.53303164197699      0.63406401131322
  F   -1.09630485081637      0.92183118402846     -0.52462083747427
  F   -1.01207257025634      2.92127151332080      0.30079545470980
  O   -1.02103000756141     -0.70740940490129      4.72121627619187
  F   1.86583649869985     -1.71292215492522      2.46020821933511
  O   -0.77338033351737     -4.81047913568758      0.99906768815626
  H   0.16101810497197     -4.81250761045434      0.72402650885489
  H   -0.83109175539949     -5.27440185806693      1.87681607353587
  O   -3.70619693624298     -1.47191696726561      2.48425203330403
  H   -3.65468660491517     -0.49810314332841      2.36367681398017
  H   -3.72169738124231     -1.65117228983424      3.43576730596599
