70

  F   2.16411381161929     -5.84854281736470     -0.15461764454898
  Nd  0.17509612527014     -2.99610245696314      2.23946537157841
  F   2.91790743285392      2.15890813713659      3.62875375403532
  F   -1.38455967349669     -4.63077634347790      6.76565256261103
  F   1.45552330054274     -7.57338790520622      0.94848621360876
  F   2.95120120825610      0.64644588720236      2.07809088356694
  F   0.70303674546616     -5.07086231748079      7.15688602718059
  F   3.49735389457420     -2.84615882387507      4.32556733338835
  F   3.14402278001235     -4.69858541204546      5.40510711134019
  N   0.08276571911344      1.10882103396915      2.78960012742110
  S   -0.19527158611457      0.61821409893242      1.29070554823972
  S   1.01565337346792      0.34668217753599      3.83440733525603
  O   0.53483714257920      1.35308296024149      0.26972231064213
  F   3.62344402377666      0.16095479357186      4.08435757375796
  O   1.06860598327269     -1.12781602212629      3.62045132405937
  O   0.79145005076046      0.83826982966927      5.18025763171629
  O   -0.27888102997183     -0.86344962064325      1.13238129830881
  C   -1.98454963302065      1.14161456957024      1.11464749639219
  F   -2.77229760352793      0.39004845986845      1.88520821288345
  F   -2.13696937384990      2.41621201188125      1.44539684238464
  F   -2.33943345603674      0.96967867943021     -0.15454653137174
  C   2.75173466151474      0.86508909317229      3.37423863494498
  N   4.17331986773365     -4.26355056256000      1.65948582264796
  S   3.64047972989437     -2.96200060709840      0.87069479435588
  S   3.35168291241220     -4.99749527763822      2.80261353513295
  O   3.59482955573948     -3.16129842143220     -0.56793945567052
  F   5.11580497247556     -4.25594344986601      4.61878123015970
  O   3.77183472492964     -6.37753611808074      2.96827242958494
  O   1.87736820195430     -4.74984935033400      2.71822039655466
  O   2.49760768467667     -2.29068297233815      1.55511086067899
  C   5.06864860732579     -1.79039743562605      1.15528812247665
  F   4.82403427747542     -0.65387553480047      0.51576131077970
  F   5.22007860597052     -1.54913443359516      2.45323482362481
  F   6.18483885665982     -2.32845327425855      0.67685398978385
  C   3.81080035940942     -4.13108188107839      4.40144210780307
  N   -0.91620361658951     -1.73103912040778      6.00885587938458
  S   -2.10468988838965     -1.79563667967718      4.94451552376963
  S   0.30340574380789     -2.76532063715238      5.97777298342941
  O   -3.13002692713565     -2.82328970625521      5.19645254345040
  F   -0.35111480841878     -3.62834361003565      8.38648783564111
  O   1.51359696939986     -2.19991260169979      6.53840927971523
  O   0.36839559269443     -3.54146032615346      4.69799785113301
  O   -1.66408844175636     -1.68147286406984      3.52559521937504
  C   -2.92045850586722     -0.15201728913828      5.30388008049735
  F   -4.03717045826218     -0.10764613561761      4.57997936207751
  F   -3.22758505570543     -0.06604633506362      6.58990268466610
  F   -2.12866827008978      0.84252060857116      4.95880083400804
  C   -0.22344207950020     -4.11538299518428      7.15919381874283
  N   -0.67863596157558     -5.14779735245388     -1.26972534599958
  S   -0.20454834301064     -3.61047014314317     -1.35027917370772
  S   -0.47353276154429     -6.06564386896957      0.01313601532215
  O   -1.24779382479182     -2.71742909017731     -1.82552602847312
  F   1.34168251046082     -7.54811590837217     -1.21876584343704
  O   -1.38288692844183     -7.19867790971470     -0.00675316372893
  O   -0.35694163550396     -5.31284629613720      1.29749373320027
  O   0.61351196234032     -3.19970284725366     -0.17295469252197
  C   1.03566755036509     -3.67585573081640     -2.75425049655071
  F   1.92359322229498     -4.64160486016643     -2.56770670594846
  F   0.37371584086264     -3.91142668669448     -3.88611490186505
  F   1.64978453740102     -2.50637434312915     -2.84126082712762
  C   1.24408603174666     -6.80675936750353     -0.12191642455766
  O   -0.14567543888336     -6.39417324382771      3.97554283271528
  H   0.51239277763628     -5.77209173247635      4.32638512079120
  H   0.16122543529104     -6.52284665075846      3.06279488652067
  O   -2.05186033611426     -3.14469955670023      1.07495685182200
  H   -2.53219862951937     -2.30661502498336      1.12895247732775
  H   -2.41650074911227     -3.74173983495125      1.76670233958343
  O   -1.91092260838243     -4.51419676839195      3.29995192020479
  H   -2.40139319241255     -4.20941896902258      4.08447664880612
  H   -1.40763208908542     -5.32950743013266      3.56847707649291
