76

  F   0.35326230811826     -6.50391724297907     -0.43327077470098
  Nd  -1.06348263828916     -3.56698744458290      2.23895934803088
  F   -5.04526583906399     -6.04697774525419      1.23852152574666
  F   -2.57013533566575     -5.67127602424749      5.61508191827166
  F   -1.11240235088396     -8.08454949748884     -0.19254004492724
  F   -0.72853972134678     -6.10047008613953      6.67002013733263
  F   1.60529405425222     -5.67085476611149      4.93419198531212
  F   0.77021972216682     -7.67101187684833      5.04394592398445
  F   -5.02973800796164     -6.90132707997189      3.23092002572936
  N   2.28203515369518     -6.10979124585549      1.82888130011650
  S   2.43016344822605     -4.54429707902564      1.52420811084062
  S   1.03741200145403     -6.77332307376614      2.58606595373799
  O   2.77530774274354     -4.28833440345227      0.13528981928210
  F   2.82532998621585     -7.38600354229542      4.42702128522692
  O   0.88213942227375     -8.16240213837193      2.18314895242549
  O   -0.17775793824058     -5.91952425945864      2.63507242343796
  O   1.38694000381261     -3.70743401795734      2.17810311050959
  C   3.95648890190540     -4.08789878956405      2.50159702529273
  F   4.20673442117224     -2.79573124343768      2.33717438924302
  F   3.77211799823095     -4.34207046560284      3.79374932153012
  F   5.00240201348547     -4.79292340145920      2.06933448857799
  C   1.59489691144404     -6.87058763038915      4.37312666408360
  N   -2.24362073381256     -2.60863209601870      6.20787573374411
  S   -2.83043157429076     -1.63352201497097      5.07997379442435
  S   -0.98563850223501     -3.57098254367867      6.02870115861540
  O   -4.16204355261073     -1.18200584555307      5.43423176980677
  F   -2.35093978719788     -5.09834918953375      7.69111195607096
  O   0.06630523754712     -3.33726623264171      7.00738443860256
  O   -0.54904180906307     -3.77398896972476      4.61437257007602
  O   -2.59309080643270     -2.10446807720271      3.68843284660663
  C   -1.71847077134928     -0.13270237864502      5.19442537862217
  F   -2.01342559992565      0.56418889068347      6.28969331078521
  F   -0.45243462935226     -0.52236599493074      5.25078526001627
  F   -1.92138115321264      0.62150108012025      4.12405188330625
  C   -1.72200798435936     -5.22234305793488      6.52441130688772
  N   -5.08620680302751     -3.19443294287681      2.20769660103330
  S   -4.30827880927303     -2.22504647863087      1.20726388698235
  S   -4.53382506681155     -4.32493213125628      3.18049103889385
  O   -4.65198769171353     -0.82840551106594      1.39849465333733
  F   -6.70821933232529     -5.69602696924862      2.58091673997571
  O   -5.02602884973275     -4.18657532776303      4.54353586386913
  O   -3.09595130716902     -4.67786537248428      3.01616377803722
  O   -2.87275381921645     -2.57399034602928      0.98408556073257
  C   -5.05933046973082     -2.71329819110091     -0.43463575483104
  F   -4.87231866428717     -4.00897519733941     -0.65801905501124
  F   -6.36991636446946     -2.46052461724342     -0.42301979087783
  F   -4.49093744630209     -2.01235216111109     -1.40428089512271
  C   -5.38434936232649     -5.84370299920499      2.50169346057772
  N   -1.75932666812457     -4.59711293243705     -1.82916313390111
  S   -0.85535375704218     -3.31991143388186     -1.47303889896698
  S   -2.15228654256790     -5.74057787376056     -0.78061627578854
  O   -1.44952534665212     -2.08280274887977     -1.94750745765630
  F   -0.60075508729883     -7.37585362324509     -2.17385257745722
  O   -3.34512755153956     -6.44499739634089     -1.22437218476904
  O   -2.06503311786187     -5.30900746265684      0.63195002761146
  O   -0.26898219625444     -3.35266807451799     -0.09860528295707
  C   0.63376061857678     -3.60393932119895     -2.58338738242070
  F   1.11250865102902     -4.83320282022457     -2.43041368627928
  F   0.25055443363456     -3.44992002403967     -3.85369821832396
  F   1.58481928726802     -2.72326803806880     -2.31336758868009
  C   -0.78368425478105     -7.01304646364801     -0.90320937751095
  F   2.22508302141793     -1.32728416237470      0.75152496097049
  C   1.41881193518956     -0.33976714594673      0.38167316954359
  F   0.77711305457833     -0.67523934796955     -0.73106839429211
  F   2.15866846523141      0.73995598553448      0.13614244366173
  S   0.15725995952359      0.04019400178587      1.73367785258742
  O   -0.18333797348085     -1.31464166655551      2.26499409034936
  O   -0.90872011848764      0.78983489583981      1.08169128876017
  N   1.01560069059491      0.75975493351825      2.86901891110902
  S   1.38707723202717      2.34074965310382      2.82884174182539
  O   1.27331653680437      2.99407736707351      1.52192811390472
  O   2.58035256155249      2.54803278071778      3.64627580135148
  C   0.01672996195968      3.13486799289182      3.83315199163470
  F   -1.15099576552719      3.06023432637243      3.20581302809443
  F   -0.09755126035595      2.57110852532511      5.03853147578757
  F   0.31785839956085      4.43005006820084      4.01111003059654
