79

  F   -0.54557084624502     -5.93586954656218     -0.63673250657304
  Nd  -2.16088400279570     -3.21172660961079      1.97517879740365
  F   -6.23279393269932     -5.04675142471131      0.22905515490457
  F   -3.29824046662145     -5.24069786077310      5.38927592358541
  F   -1.94520305778285     -7.40358175677822      0.14018368197574
  F   -1.24726957261230     -5.92920029771970      5.57261384240893
  F   2.88300418888950     -7.24592476199182      3.69381001581893
  F   1.94934791643253     -9.16063369040872      3.30280483595069
  F   -5.74315453027733     -6.39654521925751      1.85297679288089
  N   1.94826627291109     -5.91573129582119      1.24429059182540
  S   1.49571547962879     -4.41856401105725      1.56349111562644
  S   1.17531569481162     -7.25747009884062      1.65524037771387
  O   2.26565433937138     -3.49574421795532      0.74973731976973
  F   3.52473443953864     -8.43696425269178      2.00366355373887
  O   1.03240029667411     -8.16687218309882      0.52139530314818
  O   0.02782926018498     -7.09592750644691      2.57400874278954
  O   0.01453915277414     -4.27385561802529      1.61620893652142
  C   2.00614438077772     -4.09522246549006      3.34183414927649
  F   1.74865779666681     -2.84045088103433      3.65588438468459
  F   1.34940101203072     -4.91461170807831      4.15888326010622
  F   3.31525328149881     -4.32472225610459      3.46392069400980
  C   2.47200993775216     -8.07137642740007      2.73398618994064
  N   -2.76656365926488     -2.42389097381680      6.01997345580048
  S   -3.52194497488874     -1.41620049695851      5.02943016342056
  S   -1.49237840531376     -3.31528769661291      5.64808461258914
  O   -4.84945282033243     -1.11164781496593      5.53285313167694
  F   -2.30641093333219     -5.19186386342751      7.31164751159037
  O   -0.37533704444686     -3.13303771857910      6.56072806584581
  O   -1.17543357453606     -3.34828304243803      4.19302501566110
  O   -3.38929442594567     -1.74158187939903      3.58313684530924
  C   -2.51180623557055      0.15095376115409      5.17568607142788
  F   -2.60142394753265      0.63654754972739      6.41295555865081
  F   -1.24016856282563     -0.14181155333201      4.91487197216994
  F   -2.95915056808284      1.04968796659045      4.31740840740396
  C   -2.13909820645120     -5.03955362609585      5.99653977206312
  N   -6.26933175560502     -2.57283379638808      1.74509949868307
  S   -5.35661335262608     -1.62291813902381      0.83782873539013
  S   -5.84689572269208     -3.85853878732657      2.58345750186532
  O   -5.70663237837505     -0.22632843152390      1.02579197527917
  F   -7.72179621485614     -5.52249535038770      1.72285930018637
  O   -6.62698824048307     -3.97267443880582      3.80428439665536
  O   -4.38610502919961     -4.10579636479749      2.68125818943601
  O   -3.91386203996295     -1.99021085699577      0.79675353591598
  C   -5.90451527508652     -2.02368841251582     -0.91825883411872
  F   -5.28782507703835     -3.11133906999473     -1.36486754136366
  F   -7.22218189471598     -2.22965436088277     -0.95157182895033
  F   -5.61000703567188     -0.99682971291017     -1.70256155961246
  C   -6.42420802112988     -5.29907465516889      1.51597437008201
  N   -2.53909656141109     -4.32823963519198     -2.15845679839712
  S   -1.89142965608131     -2.90550526742338     -1.77876861182770
  S   -3.07867064539765     -5.38643744350324     -1.09819516006748
  O   -2.61705610950599     -1.78956598496588     -2.36544862686842
  F   -1.51187519100011     -7.33076290116504     -1.98481658189206
  O   -4.17735656944924     -6.16980272587443     -1.64123043591147
  O   -3.23396195427076     -4.84297603235083      0.27874267940048
  O   -1.44415946139815     -2.80213262580966     -0.36449634625391
  C   -0.27653761133615     -3.00506065198841     -2.72270240460883
  F   0.52193994691144     -3.91495342513253     -2.18401343990799
  F   -0.51919775226183     -3.33416361480961     -3.99227009147621
  F   0.31623479900940     -1.81715337645557     -2.69708139593373
  C   -1.66563249946409     -6.60062641455308     -0.88675812744095
  F   1.05127139474113     -1.08804713877977     -0.06921061183977
  C   0.34080078119772      0.01876587747984      0.08110204006967
  F   -0.68865947304867      0.00789945617590     -0.76217488981989
  F   1.11026322021911      1.06934199074189     -0.19677195665877
  S   -0.30553954068705      0.14513123521582      1.84278058599661
  O   -0.81144124479722     -1.23907958041077      2.09056266720495
  O   -1.29827697658192      1.21375177573856      1.83022830725335
  N   0.99542371897294      0.31328094037911      2.74452022141904
  S   1.68792927445203      1.75415640386233      3.03636566010115
  O   1.39189681889921      2.80554175134768      2.05935003884707
  O   3.06445033652605      1.52229778468838      3.46545983512087
  C   0.82599594412358      2.33586008939410      4.59979663031062
  F   -0.47882450782936      2.51414716116986      4.39878978127496
  F   0.99444357513297      1.47475917906241      5.60043625138874
  F   1.35608725857521      3.51244268640306      4.96528717560863
  O   -2.16094373021007     -5.57652884017858      2.71740729826886
  H   -2.87357580425136     -6.07153596528171      2.29159503933047
  H   -1.33823342472065     -6.11530885304876      2.64977178674296
