82

Nd  -0.50873542832241     -3.55548345422695      2.22966312026117
F   -3.64953953944908      2.71972797046707      1.74281498680492
F   -2.21655024846084     -6.88220925205878      0.65204005794277
F   -2.31312513667610     -5.40941307652007      6.13312703410962
F   -1.52219358506573      2.98559298488258      1.45522945289028
F   -0.72657638493439     -6.61925522337589      5.26800408969081
F   3.13789587563874     -6.41396469405302      4.62190027541924
F   1.60204290834945     -7.91918775308987      4.35549934314387
F   -1.66353202505067     -8.06407711066551      2.38333669435380
N   -2.37942391390562     -0.01110978982939      1.42189181065567
S   -1.17069009915800     -0.33884852060105      0.41647474037891
S   -2.19249566940698      0.78682976499832      2.79933492673592
O   -0.15916318681504      0.70110645659533      0.23891966379361
F   -2.40378067647795      3.34630213191020      3.40112946270375
O   -0.81650759041918      0.77083728555413      3.33913653156898
O   -3.31947162579045      0.49384989169457      3.67885967620403
O   -0.65794505526500     -1.72413455785361      0.60082042220541
C   -2.18502561607452     -0.44393162301482     -1.15260020549021
F   -3.13243408035142     -1.35997095124329     -1.02993586136719
F   -2.75100088505326      0.74667228632283     -1.36979661752133
F   -1.39669057474779     -0.74136723314772     -2.16620470629443
C   -2.45276188475586      2.57596236696045      2.31078044104693
N   3.19669417029161     -5.50810628763729      1.83808560253892
S   3.23692581932527     -3.93303559498115      1.60054454896361
S   1.90716858926226     -6.34722054969624      2.27555418343026
O   4.27673949799973     -3.55679280907202      0.66197027361824
F   3.51302567559954     -8.13402272656460      3.35882243665360
O   1.52371528010465     -7.38198339841957      1.32876512306261
O   0.82091449229288     -5.52225702822613      2.88151148423817
O   1.89321835360832     -3.29703037377414      1.46454415071301
C   3.81474168084228     -3.24822334235902      3.24345266857420
F   3.86087649723795     -1.91527788769607      3.16805302159955
F   2.98670135266766     -3.60290953994540      4.21252379623997
F   5.03766572314967     -3.70124901977770      3.52135556210990
C   2.59031236582806     -7.25732374859604      3.76035779628342
N   -0.47492820594732     -3.27734831873058      7.23563369321533
S   -1.69170942973692     -2.22802823069653      7.11116781231552
S   0.03710931397519     -4.19470001825006      6.02731479667257
O   -2.27921037707085     -2.00528455832193      8.42670252195918
F   -0.78694561876931     -6.27401526727688      7.39980823735973
O   1.39498574674655     -4.65679803449082      6.27361279667461
O   -0.28904822839260     -3.63081647038179      4.69161970733450
O   -2.60451667896495     -2.43981585670735      5.96874930296024
C   -0.80297154499764     -0.62620584328168      6.69918900514181
F   -0.16056797425093     -0.17112764041138      7.77679417565142
F   0.08399643649726     -0.82496682119470      5.72784337394404
F   -1.68809253189836      0.28365710617585      6.30821760688249
C   -1.02917982378557     -5.73016670865845      6.20301897600829
N   -4.38966930572083     -5.27367539779031      2.11105628504521
S   -4.06527321222191     -3.98677635762507      1.20504395068498
S   -3.27521190425348     -6.07008257167273      2.93639497571131
O   -4.82131710435758     -2.80495861462774      1.60946785090447
F   -3.64159498308266     -8.26584509751799      1.51657196520518
O   -3.87689602051413     -6.78278111132417      4.05075642236616
O   -2.04860710181139     -5.27160991268551      3.18412507612513
O   -2.62707374672133     -3.80783669914236      0.88054930516808
C   -4.81663180294501     -4.53459443056845     -0.41872835394680
F   -4.26498928573039     -5.67347381037793     -0.82207301279493
F   -6.12736785402934     -4.71975141147284     -0.26163177947084
F   -4.62074339210061     -3.60040095512133     -1.33983408600399
C   -2.65331062415511     -7.41030161903128      1.78617251750470
S   0.98229997661589     -3.01970716528949     -3.19699102083229
S   0.58178571344516     -4.84662560713571     -1.09234854448451
O   1.99935935721251     -5.18858183219306     -1.04245368722838
C   2.06107750953327     -1.73535440417897     -2.35697332939427
O   -0.14246260675232     -4.81527087937088      0.21374604756004
F   2.73194452439676     -2.27164774656264     -1.34757954702180
F   1.33046406480936     -0.72054749107552     -1.90255677464037
F   2.93550030289401     -1.25620496433472     -3.25356766326094
O   0.09382080869708     -2.25050384274587     -4.06474003518237
N   0.11467548243911     -3.58652222395210     -1.93985477504713
O   1.92082116135815     -3.97806128152229     -3.78564872425192
C   -0.27576644501592     -6.28210441115700     -1.93233299589569
F   0.16366656834048     -6.38821715050676     -3.18697637505487
F   -1.59304410938115     -6.08471176793691     -1.95843961184848
F   -0.01754521430978     -7.41293615840091     -1.28605065815087
O   0.68942239339361     -1.49579331613416      3.05708402770133
H   1.26095227968980     -1.19044765305863      2.33727759731967
H   0.15988872067645     -0.71233497030160      3.32680343971047
O   -2.29222586304978     -2.27587555641953      3.32687159886457
H   -3.07471463422943     -1.84339998125882      2.94758732342488
H   -2.41723981254035     -2.31667253823770      4.30652459783022