85

  Nd  -0.94044340172710     -3.62458226914956      2.49631790286585
  F   -1.98586787121672     -4.64816331405464      7.51159087477383
  F   -0.98284616114212     -6.49017316162034      6.95824102714114
  N   0.49150686116008     -2.89203742274480      6.71352847859055
  S   -0.58557653873875     -1.77252509897932      7.14891719781206
  S   0.17486210741036     -4.28691378504775      6.03729673849851
  O   -0.89570617447866     -1.81409147839891      8.57556093138941
  F   -0.13559932479686     -5.21763539840542      8.48776366717205
  O   1.40264880380677     -5.04860863033182      5.84444949181092
  O   -0.79237017301917     -4.23952781465789      4.90299101546977
  O   -1.70522841331474     -1.56216350592102      6.20646482885423
  C   0.49522980719213     -0.26159342435505      6.90699549316451
  F   1.57260220330999     -0.30936570990958      7.68323121146915
  F   0.87297695907684     -0.15518339145966      5.63605336020222
  F   -0.22455248071550      0.81243324462571      7.23423927655613
  C   -0.80235101017414     -5.22699613765263      7.33510671927319
  F   2.52142647665958     -0.42749001840750      0.06169214648549
  C   1.35101450278436     -0.04587740067474     -0.43527945175350
  F   1.13246887735852     -0.66383284370075     -1.58186569614219
  F   1.37522625316610      1.27063746511556     -0.63596478070130
  S   -0.02788315640321     -0.46056047071535      0.76475268488010
  O   0.28746542793588     -1.84532551696335      1.19056729620434
  O   -1.27041155974411     -0.25999370120669      0.00606396476543
  N   0.22556746894661      0.48625784873387      2.03157505462982
  S   -0.40548584041753      1.99652175443178      2.12966539471730
  O   -0.80800129983126      2.57182379644685      0.84657318400323
  O   0.40265763745725      2.76570596186201      3.06858484787229
  C   -2.01269352033879      1.65946961152820      3.04494290828691
  F   -2.74851457181269      0.76437159728906      2.39821997952685
  F   -1.76257245547961      1.21406464897279      4.27645133628675
  F   -2.70159092167401      2.80067540730376      3.13672937749882
  O   0.42248378082512     -3.18431612075975     -2.70926435004803
  O   -0.73423325362981     -4.17312797675708     -0.05048476537427
  S   -0.88764606466570     -3.56648811010548     -3.24444982502680
  O   -1.06393711107322     -3.77190767008176     -4.67873899864581
  C   -2.04318240345241     -2.12559277465022     -2.84484945587704
  F   -1.36909804216349     -0.98356922202187     -2.91148464054997
  F   -3.04427077771183     -2.08354548512654     -3.72533680852257
  F   -2.56579652579374     -2.26011536012498     -1.62492453037985
  N   -1.60010978367218     -4.78796708912479     -2.43824730860816
  S   -1.06910354202233     -5.25189729467499     -1.01622129685196
  O   -1.95511987773953     -6.32010122005292     -0.51343138288595
  C   0.58593843427783     -6.13787984001360     -1.36058599373778
  F   1.57909785884303     -5.51698151426918     -0.74845545862014
  F   0.49215312757560     -7.38640097197069     -0.92685648989655
  F   0.82877754936540     -6.16117338332889     -2.67110359458008
  O   0.33179132411197     -5.75778088473218      2.08676077529078
  O   1.40957867587948     -3.45423087269491      3.27534641721551
  S   1.57177644470638     -6.52503297556759      2.41981230357400
  O   2.05794056085457     -7.47984797181526      1.43487405265895
  C   1.02494764199848     -7.61413947013879      3.86879916064087
  F   0.67392716033794     -8.80422000050496      3.37650516028416
  F   2.01413635252731     -7.78470975667168      4.73221120610228
  F   -0.02695753921100     -7.08792700954475      4.47948213518842
  N   2.76779926414856     -5.64983922275338      2.99939388703156
  S   2.76524187213056     -4.07255548823528      3.25698640807865
  O   3.71200498848718     -3.69950898567869      4.29055321782537
  C   3.50155605961946     -3.38967045850844      1.67600124319368
  F   2.67148874280052     -3.57066425346692      0.65857856524696
  F   3.73502271943338     -2.09188522440118      1.84025231408502
  F   4.65429351971720     -4.00451495257591      1.41082557301112
  O   -4.82199194548882     -3.97567103701369      1.44710699328923
  O   -3.14318975213514     -3.46895170915175      3.71488531632844
  S   -5.92059164139141     -3.48687988338528      2.32938260026437
  O   -7.28142769939844     -3.85088540515324      1.96075989256527
  C   -5.83546716953387     -1.61429500229238      2.13321451838795
  F   -5.62083638880532     -1.31284234206606      0.85121387589870
  F   -6.99449828120528     -1.07958687988989      2.51264957381391
  F   -4.85922870126207     -1.10466330765630      2.86987284912933
  N   -5.70174770088407     -3.68749493858376      3.90119028065064
  S   -4.26318947984380     -3.85832588520827      4.60286460780429
  O   -4.29477804828678     -3.36275589318803      5.96540597349958
  C   -4.16177004150975     -5.73829635745526      4.76481084814777
  F   -4.65790387166319     -6.32578155959070      3.67598323410683
  F   -2.91030201799631     -6.13444223956046      4.94272558408979
  F   -4.89034615137416     -6.11261478019346      5.81570377902134
  O   -0.89663235360695     -1.53149636216769      3.67829896784090
  H   -0.30411427125352     -0.78436177742320      3.47040743429624
  H   -1.25273053681713     -1.43368684424111      4.59218249720575
  O   -2.62401681813556     -2.36213139692181      1.21284365850883
  H   -3.45181677437397     -2.82545549539909      0.98878665694257
  H   -2.42240366166327     -1.68775653053994      0.53843666383366
  O   -2.53499779407159     -5.43176003870600      1.94331805267771
  H   -3.44009797449562     -5.09771456447462      1.77315221599931
  H   -2.28848059254766     -5.95457905133636      1.14619994426997

